# 1-D radial flow problem for CO2 injection into a saline aquifer
ROCKS----1----*----2----*----3----*----4----*----5----*----6----*----7----*----8
00001    2    2600.0       0.1   1.0E-10   1.0E-10   1.0E-12      2.51      920.
   4.5e-10
    7           .457       .30        1.       .05
    7           .457       .00    5.1e-5      1.e7      .999  
00002    2    2600.0       0.1   1.0E-10   1.0E-10   1.0E-12      2.51      920.
   4.5e-10
    7           .457       .30        1.       .05
    7           .457       .00    5.1e-5      1.e7      .999  
00003    2    2600.0       0.1   1.0E-10   1.0E-10   1.0E-12      2.51      920.
   4.5e-10
    7           .457       .30        1.       .05
    7           .457       .00    5.1e-5      1.e7      .999
00004    2    2600.0       1.0   1.0E-10   1.0E-10   1.0E-12      2.51      920.
   4.5e-10
    7           .457       .30        1.       .05
    7           .457       .00    5.1e-5      1.e7      .999    
SEED   

MULTI----1----*----2----*----3----*----4----*----5----*----6----*----7----*----8
    1    1    2    6
SELEC....2....3....4....5....6....7....8....9...10...11...12...13...14...15...16
    1                                            0    0    0    0    0    0    2
        .8   .8
SOLVR----1----*----2----*----3----*----4----*----5----*----6----*----7----*----8
5  Z1   O0    8.0e-1    1.0e-7
START----1----*----2----*----3----*----4----*----5----*----6----*----7----*----8
REACT----1MOPR(20)-2----*----3----*----4----*----5----*----6----*----7----*----8
000200000000001
----*----1 MOP: 123456789*123456789*1234 ---*----5----*----6----*----7----*----8
PARAM----1----*----2----*----3----*----4----*----5----*----6----*----7----*----8
   19999    99992000 01000010  40  0500
           ttttttttt       -1.3.15576E05A1 48           9.81
     1.E-1
     1.E-4     1.E00 
     
TIMES----1----*----2----*----3----*----4----*----5----*----6----*----7----*----8
  104
aaaaaaaaaabbbbbbbbbbccccccccccddddddddddeeeeeeeeeeffffffffffgggggggggghhhhhhhhhh
aaaaaaaaaabbbbbbbbbbccccccccccddddddddddeeeeeeeeeeffffffffffgggggggggghhhhhhhhhh
aaaaaaaaaabbbbbbbbbbccccccccccddddddddddeeeeeeeeeeffffffffffgggggggggghhhhhhhhhh
aaaaaaaaaabbbbbbbbbbccccccccccddddddddddeeeeeeeeeeffffffffffgggggggggghhhhhhhhhh
aaaaaaaaaabbbbbbbbbbccccccccccddddddddddeeeeeeeeeeffffffffffgggggggggghhhhhhhhhh
aaaaaaaaaabbbbbbbbbbccccccccccddddddddddeeeeeeeeeeffffffffffgggggggggghhhhhhhhhh
aaaaaaaaaabbbbbbbbbbccccccccccddddddddddeeeeeeeeeeffffffffffgggggggggghhhhhhhhhh
aaaaaaaaaabbbbbbbbbbccccccccccddddddddddeeeeeeeeeeffffffffffgggggggggghhhhhhhhhh
aaaaaaaaaabbbbbbbbbbccccccccccddddddddddeeeeeeeeeeffffffffffgggggggggghhhhhhhhhh
aaaaaaaaaabbbbbbbbbbccccccccccddddddddddeeeeeeeeeeffffffffffgggggggggghhhhhhhhhh
aaaaaaaaaabbbbbbbbbbccccccccccddddddddddeeeeeeeeeeffffffffffgggggggggghhhhhhhhhh
aaaaaaaaaabbbbbbbbbbccccccccccddddddddddeeeeeeeeeeffffffffffgggggggggghhhhhhhhhh
aaaaaaaaaabbbbbbbbbbccccccccccddddddddddeeeeeeeeeeffffffffffgggggggggghhhhhhhhhh


GENER----1----*----2----*----3----*----4----*----5----*----6----*----7----*----8
03M01  010                  38     MASS                               
           0.0      172800.0     2764800.0     5443200.0
     8035200.0    10713600.0    13392000.0    15811200.0
    18489600.0    21081600.0    23760000.0    26352000.0
    29721600.0    29894400.0    32486400.0    35164800.0
    37756800.0    40435200.0    43113600.0    45532800.0
    48211200.0    50803200.0    53481600.0    56073600.0
    58752000.0    61430400.0    64022400.0    65750400.0
    68342400.0    70934400.0    73526400.0    76118400.0
    78710400.0    81302400.0    83894400.0    86659200.0
    89251200.0   315360000.0
  -3.195747461  -2.572920525  -2.120818399  -2.234756944
  -2.159147252  -2.260745221  -2.355018188   -2.29182721
  -2.220733025  -2.197573178  -2.214594907  -2.397106481
  -3.195747461  -2.572920525  -2.120818399  -2.234756944
  -2.159147252  -2.260745221  -2.355018188   -2.29182721
  -2.220733025  -2.197573178  -2.214594907  -2.397106481
  -2.226064068  -2.319448302  -2.421405945     -2.373125
  -2.081643519  -1.420385802  -2.498175154   -1.88306713
  -1.492638889  -1.635524691   -1.27672526  -2.054322193
           0.0           0.0
08b01  020                  38     MASS                               
           0.0      172800.0     2764800.0     5443200.0
     8035200.0    10713600.0    13392000.0    15811200.0
    18489600.0    21081600.0    23760000.0    26352000.0
    29721600.0    29894400.0    32486400.0    35164800.0
    37756800.0    40435200.0    43113600.0    45532800.0
    48211200.0    50803200.0    53481600.0    56073600.0
    58752000.0    61430400.0    64022400.0    65750400.0
    68342400.0    70934400.0    73526400.0    76118400.0
    78710400.0    81302400.0    83894400.0    86659200.0
    89251200.0   315360000.0
  -2.509352599  -2.243013117  -2.214396655   -2.27501929
  -1.987712814  -2.415292712  -2.473181217  -2.515535394
  -2.025177469  -2.615430854  -2.796373457  -2.943921744
  -2.509352599  -2.243013117  -2.214396655   -2.27501929
  -1.987712814  -2.415292712  -2.473181217  -2.515535394
  -2.025177469  -2.615430854  -2.796373457  -2.943921744
  -2.799469833  -2.791859568  -2.907517361  -2.430439815
  -2.255447531  -2.016415895  -3.035551698  -2.181045525
  -2.103190586  -1.845374228  -1.766540075    -2.3369864
           0.0           0.0
05K01  030                  38     MASS                               
           0.0      172800.0     2764800.0     5443200.0
     8035200.0    10713600.0    13392000.0    15811200.0
    18489600.0    21081600.0    23760000.0    26352000.0
    29721600.0    29894400.0    32486400.0    35164800.0
    37756800.0    40435200.0    43113600.0    45532800.0
    48211200.0    50803200.0    53481600.0    56073600.0
    58752000.0    61430400.0    64022400.0    65750400.0
    68342400.0    70934400.0    73526400.0    76118400.0
    78710400.0    81302400.0    83894400.0    86659200.0
    89251200.0   315360000.0
  -2.059348865  -2.076959877  -2.325966995  -2.481570216
  -2.419653524  -2.441349313  -2.376264881  -2.002284946
  -1.690474537  -1.503289277  -1.236697531  -0.824518369
  -2.059348865  -2.076959877  -2.325966995  -2.481570216
  -2.419653524  -2.441349313  -2.376264881  -2.002284946
  -1.690474537  -1.503289277  -1.236697531  -0.824518369
  -1.087335723  -0.964718364  -0.919195602  -1.013260031
  -0.725844907  -1.111944444  -1.280204475   -1.88369213
  -1.776095679   -1.79316358  -1.476866319    -2.1041739
           0.0           0.0
0C401  040                  38     MASS                               
           0.0      172800.0     2764800.0     5443200.0
     8035200.0    10713600.0    13392000.0    15811200.0
    18489600.0    21081600.0    23760000.0    26352000.0
    29721600.0    29894400.0    32486400.0    35164800.0
    37756800.0    40435200.0    43113600.0    45532800.0
    48211200.0    50803200.0    53481600.0    56073600.0
    58752000.0    61430400.0    64022400.0    65750400.0
    68342400.0    70934400.0    73526400.0    76118400.0
    78710400.0    81302400.0    83894400.0    86659200.0
    89251200.0   315360000.0
   -2.54952957  -2.825972222  -2.791491189  -2.757523148
  -2.709184588  -2.770123955  -2.787318122  -2.508456541
  -2.321747685  -2.312944295   -2.27376929  -1.934643817
   -2.54952957  -2.825972222  -2.791491189  -2.757523148
  -2.709184588  -2.770123955  -2.787318122  -2.508456541
  -2.321747685  -2.312944295   -2.27376929  -1.934643817
   -1.47770684  -1.355933642  -1.217563657  -1.239058642
  -1.027218364  -1.034787809  -1.152800926  -0.975316358
  -1.105262346           0.0           0.0           0.0
           0.0           0.0
08A01  050                  38     MASS                               
           0.0      172800.0     2764800.0     5443200.0
     8035200.0    10713600.0    13392000.0    15811200.0
    18489600.0    21081600.0    23760000.0    26352000.0
    29721600.0    29894400.0    32486400.0    35164800.0
    37756800.0    40435200.0    43113600.0    45532800.0
    48211200.0    50803200.0    53481600.0    56073600.0
    58752000.0    61430400.0    64022400.0    65750400.0
    68342400.0    70934400.0    73526400.0    76118400.0
    78710400.0    81302400.0    83894400.0    86659200.0
    89251200.0   315360000.0
  -2.183198925  -2.272418981  -2.136723417  -2.162102623
  -2.241106631  -1.968951613  -1.785160384  -2.016730137
  -1.351049383  -1.864728943  -1.975787037  -1.552800179
  -2.183198925  -2.272418981  -2.136723417  -2.162102623
  -2.241106631  -1.968951613  -1.785160384  -2.016730137
  -1.351049383  -1.864728943  -1.975787037  -1.552800179
  -1.731332139  -2.389232253  -1.988107639   -1.16123071
  -1.869243827  -1.682291667  -2.384791667   -1.72878858
  -1.300324074  -1.534232253  -1.401595052  -2.070106337
           0.0           0.0
0GD01  060                  38     MASS                               
           0.0      172800.0     2764800.0     5443200.0
     8035200.0    10713600.0    13392000.0    15811200.0
    18489600.0    21081600.0    23760000.0    26352000.0
    29721600.0    29894400.0    32486400.0    35164800.0
    37756800.0    40435200.0    43113600.0    45532800.0
    48211200.0    50803200.0    53481600.0    56073600.0
    58752000.0    61430400.0    64022400.0    65750400.0
    68342400.0    70934400.0    73526400.0    76118400.0
    78710400.0    81302400.0    83894400.0    86659200.0
    89251200.0   315360000.0
  -2.730253136  -2.957750772  -2.753098865  -2.513703704
  -2.473767921   -2.59865218  -2.454947917  -2.414889486
  -2.423861883  -2.379726703  -2.315192901  -2.404357079
  -2.730253136  -2.957750772  -2.753098865  -2.513703704
  -2.473767921   -2.59865218  -2.454947917  -2.414889486
  -2.423861883  -2.379726703  -2.315192901  -2.404357079
  -2.239833483  -2.132770062  -2.324027778  -1.355405093
  -1.660744599   -1.72037037  -2.555443673  -1.692256944
  -1.649891975   -1.55068287  -1.484248409  -1.993789786
           0.0           0.0
0BR01  070                  38     MASS                               
           0.0      172800.0     2764800.0     5443200.0
     8035200.0    10713600.0    13392000.0    15811200.0
    18489600.0    21081600.0    23760000.0    26352000.0
    29721600.0    29894400.0    32486400.0    35164800.0
    37756800.0    40435200.0    43113600.0    45532800.0
    48211200.0    50803200.0    53481600.0    56073600.0
    58752000.0    61430400.0    64022400.0    65750400.0
    68342400.0    70934400.0    73526400.0    76118400.0
    78710400.0    81302400.0    83894400.0    86659200.0
    89251200.0   315360000.0
  -3.069104689  -3.230709877  -3.508411738  -2.961458333
  -3.499544504   -3.03614098  -3.452335483  -2.981936977
   -2.96538966  -3.093197431  -3.157067901  -3.204450418
  -3.069104689  -3.230709877  -3.508411738  -2.961458333
  -3.499544504   -3.03614098  -3.452335483  -2.981936977
   -2.96538966  -3.093197431  -3.157067901  -3.204450418
  -3.021206691  -2.960069444  -3.010005787  -0.532407407
           0.0           0.0           0.0           0.0
           0.0  -0.565123457  -0.634281661  -0.633358652
           0.0           0.0
0KI01  080                  38     MASS                               
           0.0      172800.0     2764800.0     5443200.0
     8035200.0    10713600.0    13392000.0    15811200.0
    18489600.0    21081600.0    23760000.0    26352000.0
    29721600.0    29894400.0    32486400.0    35164800.0
    37756800.0    40435200.0    43113600.0    45532800.0
    48211200.0    50803200.0    53481600.0    56073600.0
    58752000.0    61430400.0    64022400.0    65750400.0
    68342400.0    70934400.0    73526400.0    76118400.0
    78710400.0    81302400.0    83894400.0    86659200.0
    89251200.0   315360000.0
  -2.182788232  -2.260787037  -2.155066458  -2.123267747
  -2.136144713  -1.985972969   -2.13088211  -2.053121266
  -1.945462963  -1.932325269  -1.934344136  -1.976288082
  -2.182788232  -2.260787037  -2.155066458  -2.123267747
  -2.136144713  -1.985972969   -2.13088211  -2.053121266
  -1.945462963  -1.932325269  -1.934344136  -1.976288082
  -1.839523596  -1.800046296  -1.880931713  -1.704994213
  -1.743155864  -1.504533179  -2.054760802  -1.684263117
  -1.261049383  -1.238302469   -1.27557147  -1.352322049
           0.0           0.0
0Qm01  090                  38     MASS                               
           0.0      172800.0     2764800.0     5443200.0
     8035200.0    10713600.0    13392000.0    15811200.0
    18489600.0    21081600.0    23760000.0    26352000.0
    29721600.0    29894400.0    32486400.0    35164800.0
    37756800.0    40435200.0    43113600.0    45532800.0
    48211200.0    50803200.0    53481600.0    56073600.0
    58752000.0    61430400.0    64022400.0    65750400.0
    68342400.0    70934400.0    73526400.0    76118400.0
    78710400.0    81302400.0    83894400.0    86659200.0
    89251200.0   315360000.0
  -2.275395759   -0.66461034  -0.559808094  -0.685146605
  -1.390905018  -0.662746416  -3.349020337  -2.100657109
  -0.944386574   -2.25062724  -2.271670525  -2.439859618
  -2.275395759   -0.66461034  -0.559808094  -0.685146605
  -1.390905018  -0.662746416  -3.349020337  -2.100657109
  -0.944386574   -2.25062724  -2.271670525  -2.439859618
  -1.991423984  -1.760486111  -2.412193287  -1.453425926
  -1.458553241  -1.508395062  -2.674263117   -1.09097608
  -1.109239969   -0.96693287  -0.933257378  -1.133250145
           0.0           0.0
0WA01  1 0                  38     MASS                               
           0.0      172800.0     2764800.0     5443200.0
     8035200.0    10713600.0    13392000.0    15811200.0
    18489600.0    21081600.0    23760000.0    26352000.0
    29721600.0    29894400.0    32486400.0    35164800.0
    37756800.0    40435200.0    43113600.0    45532800.0
    48211200.0    50803200.0    53481600.0    56073600.0
    58752000.0    61430400.0    64022400.0    65750400.0
    68342400.0    70934400.0    73526400.0    76118400.0
    78710400.0    81302400.0    83894400.0    86659200.0
    89251200.0   315360000.0
  -2.912294654  -2.970756173  -3.205645161  -3.198834877
  -3.199753584  -2.438888889  -3.210119048  -3.105656362
  -2.867924383  -2.144765532  -2.487824074  -1.549103943
  -2.912294654  -2.970756173  -3.205645161  -3.198834877
  -3.199753584  -2.438888889  -3.210119048  -3.105656362
  -2.867924383  -2.144765532  -2.487824074  -1.549103943
  -1.764187575  -2.211076389  -2.555439815  -1.464621914
  -1.748942901  -1.338614969  -3.006365741  -1.068190586
  -1.119282407   -1.44023534  -1.448151765  -1.653613281
           0.0           0.0
0Ff01  110                  38     MASS                               
           0.0      172800.0     2764800.0     5443200.0
     8035200.0    10713600.0    13392000.0    15811200.0
    18489600.0    21081600.0    23760000.0    26352000.0
    29721600.0    29894400.0    32486400.0    35164800.0
    37756800.0    40435200.0    43113600.0    45532800.0
    48211200.0    50803200.0    53481600.0    56073600.0
    58752000.0    61430400.0    64022400.0    65750400.0
    68342400.0    70934400.0    73526400.0    76118400.0
    78710400.0    81302400.0    83894400.0    86659200.0
    89251200.0   315360000.0
  -2.864430257  -2.705073302  -2.115953554  -2.666658951
   -2.75745221  -2.262246117  -2.180923446  -2.614938023
  -2.479533179  -2.531571087  -2.655540123  -2.732866637
  -2.864430257  -2.705073302  -2.115953554  -2.666658951
   -2.75745221  -2.262246117  -2.180923446  -2.614938023
  -2.479533179  -2.531571087  -2.655540123  -2.732866637
  -2.614568399  -2.556381173  -2.637876157  -1.925922068
   -1.04996142  -1.125733025  -1.771037809  -0.732631173
  -0.724918981  -1.343244599  -1.083792679  -1.149540654
           0.0           0.0
0NR01  120                  38     MASS                               
           0.0      172800.0     2764800.0     5443200.0
     8035200.0    10713600.0    13392000.0    15811200.0
    18489600.0    21081600.0    23760000.0    26352000.0
    29721600.0    29894400.0    32486400.0    35164800.0
    37756800.0    40435200.0    43113600.0    45532800.0
    48211200.0    50803200.0    53481600.0    56073600.0
    58752000.0    61430400.0    64022400.0    65750400.0
    68342400.0    70934400.0    73526400.0    76118400.0
    78710400.0    81302400.0    83894400.0    86659200.0
    89251200.0   315360000.0
  -2.677094534   -2.23126929  -2.160009707  -2.293684414
  -2.267939815  -1.037559737  -1.042613261  -1.582739695
  -1.473815586  -1.409718489  -1.177866512  -1.392491786
  -2.677094534   -2.23126929  -2.160009707  -2.293684414
  -2.267939815  -1.037559737  -1.042613261  -1.582739695
  -1.473815586  -1.409718489  -1.177866512  -1.392491786
  -1.240027628   -1.17757716  -1.292609954  -1.132141204
           0.0  -0.994506173  -0.892905093           0.0
           0.0  -1.719112654  -1.195424624  -1.551519097
           0.0           0.0
0TR01  130                  38     MASS                               
           0.0      172800.0     2764800.0     5443200.0
     8035200.0    10713600.0    13392000.0    15811200.0
    18489600.0    21081600.0    23760000.0    26352000.0
    29721600.0    29894400.0    32486400.0    35164800.0
    37756800.0    40435200.0    43113600.0    45532800.0
    48211200.0    50803200.0    53481600.0    56073600.0
    58752000.0    61430400.0    64022400.0    65750400.0
    68342400.0    70934400.0    73526400.0    76118400.0
    78710400.0    81302400.0    83894400.0    86659200.0
    89251200.0   315360000.0
  -2.914288381  -2.933726852  -1.620792264  -1.820088735
  -1.755402479  -1.853427419  -1.784924769   -1.74406362
  -1.830250772  -1.857657557   -1.93564429  -2.047644116
  -2.914288381  -2.933726852  -1.620792264  -1.820088735
  -1.755402479  -1.853427419  -1.784924769   -1.74406362
  -1.830250772  -1.857657557   -1.93564429  -2.047644116
  -2.235446535  -2.181415895  -1.835665509  -1.936253858
           0.0  -1.671466049           0.0  -1.768294753
  -1.528668981  -1.395902778  -1.349497251  -1.635691551
           0.0           0.0
0Z001  140                  38     MASS                               
           0.0      172800.0     2764800.0     5443200.0
     8035200.0    10713600.0    13392000.0    15811200.0
    18489600.0    21081600.0    23760000.0    26352000.0
    29721600.0    29894400.0    32486400.0    35164800.0
    37756800.0    40435200.0    43113600.0    45532800.0
    48211200.0    50803200.0    53481600.0    56073600.0
    58752000.0    61430400.0    64022400.0    65750400.0
    68342400.0    70934400.0    73526400.0    76118400.0
    78710400.0    81302400.0    83894400.0    86659200.0
    89251200.0   315360000.0
  -2.366666667  -2.516284722  -2.428050329  -2.364000772
  -2.361626344   -1.16432945  -1.532184193  -2.228670102
  -1.883171296  -2.187585872  -2.702160494  -2.736966099
  -2.366666667  -2.516284722  -2.428050329  -2.364000772
  -2.361626344   -1.16432945  -1.532184193  -2.228670102
  -1.883171296  -2.187585872  -2.702160494  -2.736966099
  -2.577867384  -2.515165895  -2.237945602  -2.412449846
  -1.774282407  -1.777021605   -2.24445216   -1.68626929
  -1.508780864  -1.411886574  -1.270645255  -2.153233507
           0.0           0.0
0Jg01  150                  38     MASS                               
           0.0      172800.0     2764800.0     5443200.0
     8035200.0    10713600.0    13392000.0    15811200.0
    18489600.0    21081600.0    23760000.0    26352000.0
    29721600.0    29894400.0    32486400.0    35164800.0
    37756800.0    40435200.0    43113600.0    45532800.0
    48211200.0    50803200.0    53481600.0    56073600.0
    58752000.0    61430400.0    64022400.0    65750400.0
    68342400.0    70934400.0    73526400.0    76118400.0
    78710400.0    81302400.0    83894400.0    86659200.0
    89251200.0   315360000.0
  -0.545717593  -0.658796296  -0.480406213  -0.933599537
  -1.108684289  -1.500059737  -0.991724537  -1.017921147
  -0.759417438  -0.597020609  -0.469486883  -0.287350657
  -0.545717593  -0.658796296  -0.480406213  -0.933599537
  -1.108684289  -1.500059737  -0.991724537  -1.017921147
  -0.759417438  -0.597020609  -0.469486883  -0.287350657
  -0.246128286  -0.207492284  -0.297592593           0.0
           0.0           0.0           0.0           0.0
           0.0  -1.650354938  -1.043565538  -1.138462095
           0.0           0.0
0QK01  160                  38     MASS                               
           0.0      172800.0     2764800.0     5443200.0
     8035200.0    10713600.0    13392000.0    15811200.0
    18489600.0    21081600.0    23760000.0    26352000.0
    29721600.0    29894400.0    32486400.0    35164800.0
    37756800.0    40435200.0    43113600.0    45532800.0
    48211200.0    50803200.0    53481600.0    56073600.0
    58752000.0    61430400.0    64022400.0    65750400.0
    68342400.0    70934400.0    73526400.0    76118400.0
    78710400.0    81302400.0    83894400.0    86659200.0
    89251200.0   315360000.0
  -2.820437575  -2.787222222  -2.579002389  -2.499567901
  -2.459109916  -2.563784349  -2.355361276  -2.419746864
   -2.23318287  -2.128841846  -2.083699846  -2.111394863
  -2.820437575  -2.787222222  -2.579002389  -2.499567901
  -2.459109916  -2.563784349  -2.355361276  -2.419746864
   -2.23318287  -2.128841846  -2.083699846  -2.111394863
  -1.965064964  -1.888333333  -1.933350694           0.0
           0.0           0.0           0.0           0.0
           0.0  -0.886030093  -0.892527488  -1.454090712
           0.0           0.0
0Vm01  170                  38     MASS                               
           0.0      172800.0     2764800.0     5443200.0
     8035200.0    10713600.0    13392000.0    15811200.0
    18489600.0    21081600.0    23760000.0    26352000.0
    29721600.0    29894400.0    32486400.0    35164800.0
    37756800.0    40435200.0    43113600.0    45532800.0
    48211200.0    50803200.0    53481600.0    56073600.0
    58752000.0    61430400.0    64022400.0    65750400.0
    68342400.0    70934400.0    73526400.0    76118400.0
    78710400.0    81302400.0    83894400.0    86659200.0
    89251200.0   315360000.0
  -3.024451165  -3.019753086  -2.254207736  -2.465150463
  -2.143063023  -2.457422342  -1.663314319   -2.98686E-4
  -1.813530093   -2.25562276  -1.897125772  -1.269522849
  -3.024451165  -3.019753086  -2.254207736  -2.465150463
  -2.143063023  -2.457422342  -1.663314319   -2.98686E-4
  -1.813530093   -2.25562276  -1.897125772  -1.269522849
  -1.083986708  -1.921956019  -1.887488426  -3.054463735
  -1.451010802  -1.276149691   -0.73371142  -2.118395062
  -1.545729167  -0.858996914  -1.110839844  -1.736805556
           0.0           0.0
0be01  180                  38     MASS                               
           0.0      172800.0     2764800.0     5443200.0
     8035200.0    10713600.0    13392000.0    15811200.0
    18489600.0    21081600.0    23760000.0    26352000.0
    29721600.0    29894400.0    32486400.0    35164800.0
    37756800.0    40435200.0    43113600.0    45532800.0
    48211200.0    50803200.0    53481600.0    56073600.0
    58752000.0    61430400.0    64022400.0    65750400.0
    68342400.0    70934400.0    73526400.0    76118400.0
    78710400.0    81302400.0    83894400.0    86659200.0
    89251200.0   315360000.0
  -0.878349014  -0.788043981  -0.711723417  -2.151516204
  -3.083116786  -3.149021804  -2.514471726  -2.953218339
  -2.966122685  -2.217032557  -1.997114198  -1.303703704
  -0.878349014  -0.788043981  -0.711723417  -2.151516204
  -3.083116786  -3.149021804  -2.514471726  -2.953218339
  -2.966122685  -2.217032557  -1.997114198  -1.303703704
  -0.829121864  -1.544992284  -1.238420139           0.0
           0.0           0.0           0.0  -1.517472994
  -1.524305556  -1.445949074  -1.316623264   -1.77583912
           0.0           0.0
0YV01  190                  38     MASS                               
           0.0      172800.0     2764800.0     5443200.0
     8035200.0    10713600.0    13392000.0    15811200.0
    18489600.0    21081600.0    23760000.0    26352000.0
    29721600.0    29894400.0    32486400.0    35164800.0
    37756800.0    40435200.0    43113600.0    45532800.0
    48211200.0    50803200.0    53481600.0    56073600.0
    58752000.0    61430400.0    64022400.0    65750400.0
    68342400.0    70934400.0    73526400.0    76118400.0
    78710400.0    81302400.0    83894400.0    86659200.0
    89251200.0   315360000.0
  -2.009755824  -1.933777006  -1.915337515  -1.914131944
  -1.551049134  -2.197192354  -2.073387897  -1.888459528
  -1.518043981  -1.485763889  -1.686597222  -1.306530018
  -2.009755824  -1.933777006  -1.915337515  -1.914131944
  -1.551049134  -2.197192354  -2.073387897  -1.888459528
  -1.518043981  -1.485763889  -1.686597222  -1.306530018
  -1.109808094  -2.355181327   -1.01447338  -2.276331019
  -2.047295525  -2.022700617  -2.782777778  -2.094039352
  -1.560489969  -1.564969136   -1.21557798  -2.088462095
           0.0           0.0
0cq01  2 0                  38     MASS                               
           0.0      172800.0     2764800.0     5443200.0
     8035200.0    10713600.0    13392000.0    15811200.0
    18489600.0    21081600.0    23760000.0    26352000.0
    29721600.0    29894400.0    32486400.0    35164800.0
    37756800.0    40435200.0    43113600.0    45532800.0
    48211200.0    50803200.0    53481600.0    56073600.0
    58752000.0    61430400.0    64022400.0    65750400.0
    68342400.0    70934400.0    73526400.0    76118400.0
    78710400.0    81302400.0    83894400.0    86659200.0
    89251200.0   315360000.0
  -2.638500597  -2.151500772  -2.508777628  -2.473630401
  -2.468104092  -2.577699373  -2.579282407  -2.399880526
  -2.173784722  -2.053475956  -1.691651235  -1.126176075
  -2.638500597  -2.151500772  -2.508777628  -2.473630401
  -2.468104092  -2.577699373  -2.579282407  -2.399880526
  -2.173784722  -2.053475956  -1.691651235  -1.126176075
  -1.784038978  -2.381813272  -1.117065972  -2.109131944
  -1.522488426  -1.151527778  -1.729756944  -2.245887346
  -2.097341821   -2.01376929  -1.547139034   -2.44489294
           0.0           0.0
05G01  212                  35     COM1                      
           0.0     2678400.0     5270400.0     7948800.0
    10540800.0    13219200.0    15811200.0    18316800.0
    20995200.0    23587200.0    26265600.0    29721600.0
    32400000.0    34992000.0    37670400.0    40262400.0
    42940800.0    45532800.0    48038400.0    50716800.0
    53308800.0    55987200.0    58579200.0    61257600.0
    65750400.0    68515200.0    71107200.0    73785600.0
    76464000.0    78969600.0    81648000.0    84240000.0
    86918400.0    89251200.0   315360000.0
   0.115860215   0.026759259           0.0    9.25926E-5
           0.0    2.77778E-4    9.57854E-5    7.16846E-4
           0.0   0.001164875           0.0   0.115860215
   0.026759259           0.0    9.25926E-5           0.0
    2.77778E-4    9.57854E-5    7.16846E-4           0.0
   0.001164875           0.0    8.96057E-5   9.75781E-02
   0.195066551   0.214085648   0.243466249   0.239986559
   0.262571839   0.613933692   0.466716821   0.421105884
    0.43720067           0.0           0.0
0Be01  222                  35     COM1                      
           0.0     2678400.0     5270400.0     7948800.0
    10540800.0    13219200.0    15811200.0    18316800.0
    20995200.0    23587200.0    26265600.0    29721600.0
    32400000.0    34992000.0    37670400.0    40262400.0
    42940800.0    45532800.0    48038400.0    50716800.0
    53308800.0    55987200.0    58579200.0    61257600.0
    65750400.0    68515200.0    71107200.0    73785600.0
    76464000.0    78969600.0    81648000.0    84240000.0
    86918400.0    89251200.0   315360000.0
   3.168996416   0.144351852           0.0           0.0
   2.619444444           0.0           0.0           0.0
           0.0           0.0           0.0   3.168996416
   0.144351852           0.0           0.0   2.619444444
           0.0           0.0           0.0           0.0
           0.0           0.0           0.0           0.0
           0.0           0.0           0.0           0.0
           0.0           0.0           0.0           0.0
           0.0           0.0           0.0
06x01  232                  35     COM1                      
           0.0     2678400.0     5270400.0     7948800.0
    10540800.0    13219200.0    15811200.0    18316800.0
    20995200.0    23587200.0    26265600.0    29721600.0
    32400000.0    34992000.0    37670400.0    40262400.0
    42940800.0    45532800.0    48038400.0    50716800.0
    53308800.0    55987200.0    58579200.0    61257600.0
    65750400.0    68515200.0    71107200.0    73785600.0
    76464000.0    78969600.0    81648000.0    84240000.0
    86918400.0    89251200.0   315360000.0
   1.862992832   3.358518519   4.371146953   3.521388889
   2.692204301        2.1925   1.463122605   2.311379928
   5.002592593   3.267831541   2.720925926   1.862992832
   3.358518519   4.371146953   3.521388889   2.692204301
        2.1925   1.463122605   2.311379928   5.002592593
   3.267831541   2.720925926   1.932437276   1.49840E+00
   1.064355469   0.894803241   0.861846625   1.907455944
   1.998168103   3.416423984   2.633742284   2.135450269
   2.938601533           0.0           0.0
0EX01  242                  35     COM1                      
           0.0     2678400.0     5270400.0     7948800.0
    10540800.0    13219200.0    15811200.0    18316800.0
    20995200.0    23587200.0    26265600.0    29721600.0
    32400000.0    34992000.0    37670400.0    40262400.0
    42940800.0    45532800.0    48038400.0    50716800.0
    53308800.0    55987200.0    58579200.0    61257600.0
    65750400.0    68515200.0    71107200.0    73785600.0
    76464000.0    78969600.0    81648000.0    84240000.0
    86918400.0    89251200.0   315360000.0
   0.250448029   0.111944444           0.0           0.0